LAMMPS (12 Jun 2025)
KOKKOS mode with Kokkos version 4.6.0 is enabled (src/KOKKOS/kokkos.cpp:72)
  will use up to 1 GPU(s) per node
package kokkos
package kokkos newton on neigh half
#===========SETUP=============#
units           metal
dimension       3
boundary        p p p
atom_style      atomic
#=============================#

#Timeout before end
timer timeout 23:55:00 every 1000
New timer settings: style=normal  mode=nosync  timeout=23:55:00

#Read the fullerite structure at ~15-16 GPa
read_data coord.lmp
Reading data file ...
  orthogonal box = (0 0 0) to (58.84 58.84 46.269)
  reading atoms ...
  15360 atoms

#Change to a triclinic box for shear
change_box all triclinic remap units box
Changing box ...
  triclinic box = (0 0 0) to (58.84 58.84 46.269) with tilt (0 0 0)

#Initiate both ACE and D2 as per Carbon ACE documentation
pair_style hybrid/overlay pace product table linear 30000
ACE version: 2023.11.25
Product evaluator is used
pair_coeff * * pace ./c_ace.yace C
Loading ./c_ace.yace
Total number of basis functions
	C: 20 (r=1) 455 (r>1)
Mapping LAMMPS atom type #1(C) -> ACE species type #0
pair_coeff * * table ./d2.table D2 6.0
Reading pair table potential file ./d2.table with DATE: 2021-12-16

mass 1 12.011

#0.2 fs good timestep for ACE - From benchmarks
timestep 0.0010

# #Compute the coordination value per atom
# compute coordatom all coord/atom cutoff 1.85
#
# #Calculate number of sp3 atoms
# variable sp3atom atom "c_coordatom == 4"
# group sp3g dynamic all every 100 var "sp3atom"
# variable sp3 equal "count(sp3g)"
#
# #Calculate the strain along the z-axis
# variable tmpx equal "lx"
# variable tmpy equal "ly"
# variable tmpz equal "lz"
# variable tmpxy equal "xy"
#
#
# variable strainx equal "(lx - v_L0x)/v_L0x"
# variable strainy equal "(ly - v_L0y)/v_L0y"
# variable strainz equal "(lz - v_L0z)/v_L0z"

#Lammps trajectory dump
#dump 1 all custom 1000 compress.lammpstrj id type xu yu zu c_coordatom c_peatom c_keatom
dump 1 all xtc 1000 compress.xtc
dump_modify 1 unwrap yes precision 10000

#Restart every 20 ps
#restart 100000 RE*

#Thermodynamic output (every 0.02 ps)
thermo 100
thermo_style custom step time temp pe ke vol density press pxx pyy pzz pxy pxz pyz lx ly lz xy xz yz cpu cpuremain
#thermo_style custom step time temp pe ke econserve vol density press pxx pyy pzz pxy pxz pyz lx ly lz xy xz yz v_strainx v_strainy v_strainz v_sp3
thermo_modify flush yes

#Start nph ensemble (atoms can move and N, P and H are constant)
velocity all create 300 34526 mom yes dist gaussian
#fix 1 all nvt temp 300 300 0.1 pchain 5
fix 1 all nve
#fix 1 all nph z 10000 150000 1.0 pchain 5 mtk yes nreset 10000 drag 1
fix 2 all temp/csvr 300 300 0.1 13467

#Run NVE for 1.0 ns
run 100000
Step          Time           Temp          PotEng         KinEng         Volume        Density         Press           Pxx            Pyy            Pzz            Pxy            Pxz            Pyz             Lx             Ly             Lz             Xy             Xz             Yz            CPU          CPULeft
0   0              300           -132456.12      595.59197      160190.01      1.9124232      25556.155      21182.341      21222.237      34263.887      67.493903     -310.17097     -272.99223      58.84          58.84          46.269         0              0              0              0              0
Averages over the last 501 of 1001 rows, steps 50000 to 100000:
Temp PotEng KinEng Volume Density Press Pxx Pyy Pzz Pxy Pxz Pyz Lx Ly Lz Xy Xz Yz
299.955 -132457 595.502 160190 1.91242 23287.9 20103.6 18932.2 30827.9 338.133 -27.6059 -657.568 58.84 58.84 46.269 0 0 0
Loop time of 5411.55 on 1 procs for 100000 steps with 15360 atoms

unfix 2
run 100000
Step          Time           Temp          PotEng         KinEng         Volume        Density         Press           Pxx            Pyy            Pzz            Pxy            Pxz            Pyz             Lx             Ly             Lz             Xy             Xz             Yz            CPU          CPULeft
100000   100            297.41393     -132459.03      590.45782      160190.01      1.9124232      21567.91       17219.579      17493.102      29991.049      49.54368       225.21638     -502.72009      58.84          58.84          46.269         0              0              0              0              0
Averages over the last 501 of 1001 rows, steps 150000 to 200000:
Temp PotEng KinEng Volume Density Press Pxx Pyy Pzz Pxy Pxz Pyz Lx Ly Lz Xy Xz Yz
299.772 -132464 595.139 160190 1.91242 22871 20191 19517.9 28904.3 -48.4279 -532.641 -531.94 58.84 58.84 46.269 0 0 0
Loop time of 5338.39 on 1 procs for 100000 steps with 15360 atoms
